
**** 03/05/19 14:51:39 ****** PSpice 16.5.0 (April 2011) ****** ID# 0 ********

 ** Profile: "SCHEMATIC1-EMMM"  [ D:\3170104305\qa-PSpiceFiles\SCHEMATIC1\EMMM.sim ] 


 ****     CIRCUIT DESCRIPTION


******************************************************************************




** Creating circuit file "EMMM.cir" 
** WARNING: THIS AUTOMATICALLY GENERATED FILE MAY BE OVERWRITTEN BY SUBSEQUENT SIMULATIONS

*Libraries: 
* Profile Libraries :
* Local Libraries :
* From [PSPICE NETLIST] section of C:\Cadence\SPB_16.5\tools\PSpice\PSpice.ini file:
.lib "nom.lib" 

*Analysis directives: 
.DC LIN V_V1 -200 40 0.1 
+ TEMP LIST -10 0 30 
.PROBE V(alias(*)) I(alias(*)) W(alias(*)) D(alias(*)) NOISE(alias(*)) 
.INC "..\SCHEMATIC1.net" 



**** INCLUDING SCHEMATIC1.net ****
* source QA
R_R1         N00301 N00149 1k
D_D1         N00149 0 D1N4001 
V_V1         N00301 0  
+SIN 0 1 1000 0 0 0

**** RESUMING EMMM.cir ****
.END

**** 03/05/19 14:51:39 ****** PSpice 16.5.0 (April 2011) ****** ID# 0 ********

 ** Profile: "SCHEMATIC1-EMMM"  [ D:\3170104305\qa-PSpiceFiles\SCHEMATIC1\EMMM.sim ] 


 ****     Diode MODEL PARAMETERS


******************************************************************************




               D1N4001         
          IS   14.110000E-09 
           N    1.984        
         IKF   94.81         
          BV   75            
         IBV   10.000000E-06 
          RS     .03389      
          TT    5.700000E-06 
         CJO   25.890000E-12 
          VJ     .3245       
           M     .44         



          JOB CONCLUDED

**** 03/05/19 14:51:39 ****** PSpice 16.5.0 (April 2011) ****** ID# 0 ********

 ** Profile: "SCHEMATIC1-EMMM"  [ D:\3170104305\qa-PSpiceFiles\SCHEMATIC1\EMMM.sim ] 


 ****     JOB STATISTICS SUMMARY


******************************************************************************



  Total job time (using Solver 1)   =         .13
