
**** 03/05/19 14:59:58 ****** PSpice 16.5.0 (April 2011) ****** ID# 0 ********

 ** Profile: "SCHEMATIC1-99"  [ D:\3170104305\qa-PSpiceFiles\SCHEMATIC1\99.sim ] 


 ****     CIRCUIT DESCRIPTION


******************************************************************************




** Creating circuit file "99.cir" 
** WARNING: THIS AUTOMATICALLY GENERATED FILE MAY BE OVERWRITTEN BY SUBSEQUENT SIMULATIONS

*Libraries: 
* Profile Libraries :
* Local Libraries :
* From [PSPICE NETLIST] section of C:\Cadence\SPB_16.5\tools\PSpice\PSpice.ini file:
.lib "nom.lib" 

*Analysis directives: 
.DC LIN V_V1 -200 40 0.1 
+ TEMP LIST -10 0 30 
.PROBE V(alias(*)) I(alias(*)) W(alias(*)) D(alias(*)) NOISE(alias(*)) 
.INC "..\SCHEMATIC1.net" 



**** INCLUDING SCHEMATIC1.net ****
* source QA
R_R1         N00301 N00149 1k
V_V1         N00301 0  
+SIN 0 1 1000 0 0 0
D_D2         N00149 0 D1N4148 

**** RESUMING 99.cir ****
.END

**** 03/05/19 14:59:58 ****** PSpice 16.5.0 (April 2011) ****** ID# 0 ********

 ** Profile: "SCHEMATIC1-99"  [ D:\3170104305\qa-PSpiceFiles\SCHEMATIC1\99.sim ] 


 ****     Diode MODEL PARAMETERS


******************************************************************************




               D1N4148         
          IS    2.682000E-09 
           N    1.836        
         ISR    1.565000E-09 
         IKF     .04417      
          BV  100            
         IBV  100.000000E-06 
          RS     .5664       
          TT   11.540000E-09 
         CJO    4.000000E-12 
          VJ     .5          
           M     .3333       



          JOB CONCLUDED

**** 03/05/19 14:59:58 ****** PSpice 16.5.0 (April 2011) ****** ID# 0 ********

 ** Profile: "SCHEMATIC1-99"  [ D:\3170104305\qa-PSpiceFiles\SCHEMATIC1\99.sim ] 


 ****     JOB STATISTICS SUMMARY


******************************************************************************



  Total job time (using Solver 1)   =         .13
